<?xml version="1.0" encoding="UTF-8"?>
<configuration xmlns:xsi="http://www.w3.org/2001/XMLSchema-instance" xsi:noNamespaceSchemaLocation="http://sumo.dlr.de/xsd/sumoConfiguration.xsd">
    <input>
        <net-file value="cross.net.xml"/>
        <route-files value="cross.rou.xml"/>
        <route-steps value="0"/>
    </input>
    <time>
        <begin value="0"/>
        <end value="10000"/>
        <step-length value="0.1"/>
    </time>
    <processing>
        <time-to-teleport value="-1"/>
        <collision.action value="warn"/>
        <collision.mingap-factor value="0.5"/>
        <collision.stoptime value="1"/>
        <ignore-route-errors value="true"/>
        <extrapolate-departpos value="true"/>
        <S value="false"/>
        <Q value="true"/>
    </processing>
    <report>
        <verbose value="true"/>
        <no-step-log value="true"/>
    </report>
</configuration>