<routes>
    <vType id="CAV" accel="3" decel="5" sigma="0.0" length="5" minGap="0.8" tau="0.5" maxSpeed="10" carFollowingModel="IDM" lcStrategic="1" lcCooperative="1" lcAssertive="0.5" lcImpatience="0.0" lcKeepRight="0"/>
    <route id="main" edges="wm mc ce" />
    <route id="ramp" edges="rm mc ce" />
    
    <vehicle id="ramp_0" type="CAV" route="ramp" depart="0" departSpeed="8.45"/>
    <vehicle id="ramp_1" type="CAV" route="ramp" depart="2" departSpeed="8.06"/>
    <vehicle id="main_2" type="CAV" route="main" depart="3" departSpeed="8.05"/>
    <vehicle id="ramp_3" type="CAV" route="ramp" depart="3" departSpeed="9.09"/>
</routes>
