<routes>
        <vType id="CAV" accel="3" decel="5" sigma="0.0" length="5" minGap="0.8" tau="0.5" maxSpeed="10" carFollowingModel="IDM" lcStrategic="1" lcCooperative="1" lcAssertive="0.5" lcImpatience="0.0" lcKeepRight="0"/>
        <vType id="HDV" accel="3" decel="5" sigma="0.5" length="5" minGap="2.5" tau="1.2" maxSpeed="10" desiredMaxSpeed="10" speedFactor="normc(1,0.2,0.2,2)" carFollowingModel="Krauss" lcStrategic="0.3" lcAssertive="0.5" lcCooperative="0.2" lcImpatience="0.5"/>
        <route id="main" edges="wm mc ce" />
        <route id="ramp" edges="rm mc ce" />
        
    <vehicle id="ramp_0" type="HDV" route="ramp" depart="0"  departSpeed="8.446421476297646" />
    <vehicle id="ramp_1" type="HDV" route="ramp" depart="2"  departSpeed="8.059594438876141" />
    <vehicle id="main_2" type="HDV" route="main" depart="3"  departSpeed="8.053071939367728" />
    <vehicle id="ramp_3" type="HDV" route="ramp" depart="3"  departSpeed="9.089882961206433" />
    <vehicle id="main_4" type="HDV" route="main" depart="4"  departSpeed="9.618860913355654" />
    <vehicle id="ramp_5" type="HDV" route="ramp" depart="4"  departSpeed="9.396278789976453" />
    <vehicle id="main_6" type="CAV" route="main" depart="5" color="1,0,0" />
    <vehicle id="main_7" type="CAV" route="main" depart="6" color="1,0,0" />
    <vehicle id="ramp_8" type="HDV" route="ramp" depart="6"  departSpeed="9.207452062733783" />
    <vehicle id="main_9" type="HDV" route="main" depart="9"  departSpeed="9.65880932850599" />
    <vehicle id="ramp_10" type="HDV" route="ramp" depart="11"  departSpeed="8.578775927204214" />
    <vehicle id="main_11" type="HDV" route="main" depart="12"  departSpeed="8.202002858819458" />
    <vehicle id="ramp_12" type="HDV" route="ramp" depart="12"  departSpeed="8.729664357940168" />
    <vehicle id="main_13" type="HDV" route="main" depart="13"  departSpeed="8.533955644098226" />
    <vehicle id="main_14" type="HDV" route="main" depart="15"  departSpeed="8.326804987523857" />
    <vehicle id="ramp_15" type="HDV" route="ramp" depart="15"  departSpeed="9.279999519708186" />
    <vehicle id="main_16" type="CAV" route="main" depart="18" color="1,0,0" />
    <vehicle id="ramp_17" type="HDV" route="ramp" depart="18"  departSpeed="8.421965687172653" />
    <vehicle id="main_18" type="HDV" route="main" depart="20"  departSpeed="8.791263802121328" />
    <vehicle id="main_19" type="HDV" route="main" depart="21"  departSpeed="8.493255015387966" />
    <vehicle id="main_20" type="HDV" route="main" depart="22"  departSpeed="9.795645767204954" />
    <vehicle id="ramp_21" type="HDV" route="ramp" depart="22"  departSpeed="9.995075212990221" />
    <vehicle id="ramp_22" type="CAV" route="ramp" depart="23" color="1,0,0" />
    <vehicle id="main_23" type="HDV" route="main" depart="24"  departSpeed="9.584158728725928" />
    <vehicle id="ramp_24" type="CAV" route="ramp" depart="24" color="1,0,0" />
    <vehicle id="main_25" type="HDV" route="main" depart="25"  departSpeed="9.058228690198273" />
    <vehicle id="ramp_26" type="HDV" route="ramp" depart="26"  departSpeed="9.363420738053149" />
    <vehicle id="ramp_27" type="HDV" route="ramp" depart="27"  departSpeed="8.223104347191754" />
    <vehicle id="main_28" type="HDV" route="main" depart="28"  departSpeed="9.90763185504216" />
    <vehicle id="main_29" type="HDV" route="main" depart="29"  departSpeed="8.357303761060262" />
    <vehicle id="ramp_30" type="HDV" route="ramp" depart="30"  departSpeed="9.217940422876344" />
    <vehicle id="main_31" type="HDV" route="main" depart="31"  departSpeed="9.078758060239252" />
    <vehicle id="ramp_32" type="HDV" route="ramp" depart="32"  departSpeed="8.038953484771664" />
    <vehicle id="ramp_33" type="CAV" route="ramp" depart="34" color="1,0,0" />
    <vehicle id="main_34" type="HDV" route="main" depart="36"  departSpeed="8.138425036936766" />
    <vehicle id="ramp_35" type="HDV" route="ramp" depart="37"  departSpeed="9.099607186989887" />
    <vehicle id="main_36" type="HDV" route="main" depart="38"  departSpeed="8.846275880401773" />
    <vehicle id="ramp_37" type="HDV" route="ramp" depart="38"  departSpeed="9.459862138179952" />
    <vehicle id="main_38" type="HDV" route="main" depart="39"  departSpeed="9.990298713321788" />
    <vehicle id="main_39" type="HDV" route="main" depart="40"  departSpeed="8.242008391736531" />
    <vehicle id="ramp_40" type="HDV" route="ramp" depart="40"  departSpeed="9.176617436914466" />
    <vehicle id="main_41" type="HDV" route="main" depart="41"  departSpeed="8.141986172018065" />
    <vehicle id="main_42" type="HDV" route="main" depart="42"  departSpeed="9.719270800507493" />
    <vehicle id="ramp_43" type="HDV" route="ramp" depart="42"  departSpeed="9.337955556592561" />
    <vehicle id="main_44" type="CAV" route="main" depart="43" color="1,0,0" />
    <vehicle id="ramp_45" type="HDV" route="ramp" depart="44"  departSpeed="9.614993995533286" />
    <vehicle id="main_46" type="CAV" route="main" depart="45" color="1,0,0" />
    <vehicle id="ramp_47" type="HDV" route="ramp" depart="45"  departSpeed="8.93404933607335" />
    <vehicle id="ramp_48" type="HDV" route="ramp" depart="47"  departSpeed="8.678605210789927" />
    <vehicle id="ramp_49" type="CAV" route="ramp" depart="48" color="1,0,0" />
    <vehicle id="main_50" type="HDV" route="main" depart="49"  departSpeed="8.557090289333882" />
    <vehicle id="ramp_51" type="HDV" route="ramp" depart="49"  departSpeed="8.886261490106914" />
    <vehicle id="main_52" type="HDV" route="main" depart="51"  departSpeed="9.672055170159904" />
    <vehicle id="main_53" type="HDV" route="main" depart="53"  departSpeed="8.427494598398363" />
    <vehicle id="ramp_54" type="CAV" route="ramp" depart="53" color="1,0,0" />
    <vehicle id="main_55" type="HDV" route="main" depart="54"  departSpeed="8.530406116344304" />
    <vehicle id="main_56" type="HDV" route="main" depart="55"  departSpeed="9.914635281719347" />
    <vehicle id="main_57" type="HDV" route="main" depart="57"  departSpeed="9.937418729938317" />
    <vehicle id="main_58" type="HDV" route="main" depart="59"  departSpeed="9.005700765839027" />
    <vehicle id="main_59" type="HDV" route="main" depart="60"  departSpeed="8.160222930481174" />
    <vehicle id="ramp_60" type="HDV" route="ramp" depart="60"  departSpeed="9.35042510720818" />
    <vehicle id="main_61" type="CAV" route="main" depart="61" color="1,0,0" />
    <vehicle id="main_62" type="HDV" route="main" depart="62"  departSpeed="9.238763020664207" />
    <vehicle id="ramp_63" type="HDV" route="ramp" depart="62"  departSpeed="9.045565431063917" />
    <vehicle id="ramp_64" type="HDV" route="ramp" depart="63"  departSpeed="8.477371905231692" />
    <vehicle id="main_65" type="HDV" route="main" depart="64"  departSpeed="8.599994159597525" />
    <vehicle id="ramp_66" type="HDV" route="ramp" depart="64"  departSpeed="8.145086228986315" />
    <vehicle id="main_67" type="HDV" route="main" depart="65"  departSpeed="9.99219289571019" />
    <vehicle id="ramp_68" type="HDV" route="ramp" depart="65"  departSpeed="8.530400829500802" />
    <vehicle id="ramp_69" type="CAV" route="ramp" depart="67" color="1,0,0" />
    <vehicle id="ramp_70" type="HDV" route="ramp" depart="70"  departSpeed="8.598757504399956" />
    <vehicle id="main_71" type="CAV" route="main" depart="72" color="1,0,0" />
    <vehicle id="ramp_72" type="HDV" route="ramp" depart="72"  departSpeed="8.544696424629633" />
    <vehicle id="main_73" type="HDV" route="main" depart="74"  departSpeed="8.527967803260818" />
    <vehicle id="ramp_74" type="HDV" route="ramp" depart="74"  departSpeed="9.692207426589711" />
    <vehicle id="main_75" type="HDV" route="main" depart="75"  departSpeed="8.553360447944502" />
    <vehicle id="ramp_76" type="HDV" route="ramp" depart="75"  departSpeed="9.27422675460276" />
    <vehicle id="main_77" type="HDV" route="main" depart="76"  departSpeed="9.103360842252783" />
    <vehicle id="ramp_78" type="CAV" route="ramp" depart="76" color="1,0,0" />
    <vehicle id="main_79" type="HDV" route="main" depart="77"  departSpeed="9.807857143119787" />
    <vehicle id="main_80" type="CAV" route="main" depart="79" color="1,0,0" />
    <vehicle id="ramp_81" type="HDV" route="ramp" depart="79"  departSpeed="9.592244609776083" />
    <vehicle id="main_82" type="HDV" route="main" depart="81"  departSpeed="8.20558724334357" />
    <vehicle id="ramp_83" type="HDV" route="ramp" depart="82"  departSpeed="8.30910667666441" />
    <vehicle id="ramp_84" type="HDV" route="ramp" depart="85"  departSpeed="8.664370935892858" />
    <vehicle id="main_85" type="HDV" route="main" depart="88"  departSpeed="8.216191252805913" />
    <vehicle id="ramp_86" type="HDV" route="ramp" depart="89"  departSpeed="8.920606469357883" />
    <vehicle id="main_87" type="HDV" route="main" depart="90"  departSpeed="8.45519097481554" />
    <vehicle id="ramp_88" type="CAV" route="ramp" depart="90" color="1,0,0" />
    <vehicle id="main_89" type="HDV" route="main" depart="91"  departSpeed="9.933778208096722" />
    <vehicle id="ramp_90" type="HDV" route="ramp" depart="91"  departSpeed="8.799356768720122" />
    <vehicle id="ramp_91" type="HDV" route="ramp" depart="93"  departSpeed="8.357135632344928" />
    <vehicle id="ramp_92" type="CAV" route="ramp" depart="94" color="1,0,0" />
    <vehicle id="main_93" type="HDV" route="main" depart="95"  departSpeed="8.627354628389982" />
    <vehicle id="ramp_94" type="HDV" route="ramp" depart="96"  departSpeed="8.509445012277164" />
    <vehicle id="ramp_95" type="HDV" route="ramp" depart="97"  departSpeed="9.076903994185583" />
    <vehicle id="ramp_96" type="CAV" route="ramp" depart="99" color="1,0,0" />
</routes>
