<routes>
    <vType id="CAV" accel="3" decel="5" sigma="0.0" length="5" minGap="0.8" tau="0.5" maxSpeed="10" carFollowingModel="IDM" lcStrategic="1" lcCooperative="1" lcAssertive="0.5" lcImpatience="0.0" lcKeepRight="0"/>
    <route id="main" edges="wm mc ce" />
    <route id="ramp" edges="rm mc ce" />
    
    <vehicle id="ramp_0" type="CAV" route="ramp" depart="0" departSpeed="8.45"/>
    <vehicle id="ramp_1" type="CAV" route="ramp" depart="2" departSpeed="8.06"/>
    <vehicle id="main_2" type="CAV" route="main" depart="3" departSpeed="8.05"/>
    <vehicle id="ramp_3" type="CAV" route="ramp" depart="3" departSpeed="9.09"/>
    <vehicle id="main_4" type="CAV" route="main" depart="4" departSpeed="9.62"/>
    <vehicle id="ramp_5" type="CAV" route="ramp" depart="4" departSpeed="9.40"/>
    <vehicle id="main_6" type="CAV" route="main" depart="5" color="1,0,0" />
    <vehicle id="main_7" type="CAV" route="main" depart="6" color="1,0,0" />
    <vehicle id="ramp_8" type="CAV" route="ramp" depart="6" departSpeed="9.21"/>
    <vehicle id="main_9" type="CAV" route="main" depart="9" departSpeed="9.66"/>
    <vehicle id="ramp_10" type="CAV" route="ramp" depart="11" departSpeed="8.58"/>
    <vehicle id="main_11" type="CAV" route="main" depart="12" departSpeed="8.20"/>
    <vehicle id="ramp_12" type="CAV" route="ramp" depart="12" departSpeed="8.73"/>
    <vehicle id="main_13" type="CAV" route="main" depart="13" departSpeed="8.53"/>
    <vehicle id="main_14" type="CAV" route="main" depart="15" departSpeed="8.33"/>
    <vehicle id="ramp_15" type="CAV" route="ramp" depart="15" departSpeed="9.28"/>
    <vehicle id="main_16" type="CAV" route="main" depart="18" color="1,0,0" />
    <vehicle id="ramp_17" type="CAV" route="ramp" depart="18" departSpeed="8.42"/>
    <vehicle id="main_18" type="CAV" route="main" depart="20" departSpeed="8.79"/>
    <vehicle id="main_19" type="CAV" route="main" depart="21" departSpeed="8.49"/>
    <vehicle id="main_20" type="CAV" route="main" depart="22" departSpeed="9.80"/>
    <vehicle id="ramp_21" type="CAV" route="ramp" depart="22" departSpeed="10.00"/>
    <vehicle id="ramp_22" type="CAV" route="ramp" depart="23" color="1,0,0" />
    <vehicle id="main_23" type="CAV" route="main" depart="24" departSpeed="9.58"/>
    <vehicle id="ramp_24" type="CAV" route="ramp" depart="24" color="1,0,0" />
    <vehicle id="main_25" type="CAV" route="main" depart="25" departSpeed="9.06"/>
    <vehicle id="ramp_26" type="CAV" route="ramp" depart="26" departSpeed="9.36"/>
    <vehicle id="ramp_27" type="CAV" route="ramp" depart="27" departSpeed="8.22"/>
    <vehicle id="main_28" type="CAV" route="main" depart="28" departSpeed="9.91"/>
    <vehicle id="main_29" type="CAV" route="main" depart="29" departSpeed="8.36"/>
    <vehicle id="ramp_30" type="CAV" route="ramp" depart="30" departSpeed="9.22"/>
    <vehicle id="main_31" type="CAV" route="main" depart="31" departSpeed="9.08"/>
    <vehicle id="ramp_32" type="CAV" route="ramp" depart="32" departSpeed="8.04"/>
    <vehicle id="ramp_33" type="CAV" route="ramp" depart="34" color="1,0,0" />
    <vehicle id="main_34" type="CAV" route="main" depart="36" departSpeed="8.14"/>
    <vehicle id="ramp_35" type="CAV" route="ramp" depart="37" departSpeed="9.10"/>
    <vehicle id="main_36" type="CAV" route="main" depart="38" departSpeed="8.85"/>
    <vehicle id="ramp_37" type="CAV" route="ramp" depart="38" departSpeed="9.46"/>
    <vehicle id="main_38" type="CAV" route="main" depart="39" departSpeed="9.99"/>
    <vehicle id="main_39" type="CAV" route="main" depart="40" departSpeed="8.24"/>
    <vehicle id="ramp_40" type="CAV" route="ramp" depart="40" departSpeed="9.18"/>
    <vehicle id="main_41" type="CAV" route="main" depart="41" departSpeed="8.14"/>
    <vehicle id="main_42" type="CAV" route="main" depart="42" departSpeed="9.72"/>
    <vehicle id="ramp_43" type="CAV" route="ramp" depart="42" departSpeed="9.34"/>
    <vehicle id="main_44" type="CAV" route="main" depart="43" color="1,0,0" />
    <vehicle id="ramp_45" type="CAV" route="ramp" depart="44" departSpeed="9.61"/>
    <vehicle id="main_46" type="CAV" route="main" depart="45" color="1,0,0" />
    <vehicle id="ramp_47" type="CAV" route="ramp" depart="45" departSpeed="8.93"/>
    <vehicle id="ramp_48" type="CAV" route="ramp" depart="47" departSpeed="8.68"/>
    <vehicle id="ramp_49" type="CAV" route="ramp" depart="48" color="1,0,0" />
    <vehicle id="main_50" type="CAV" route="main" depart="49" departSpeed="8.56"/>
    <vehicle id="ramp_51" type="CAV" route="ramp" depart="49" departSpeed="8.89"/>
    <vehicle id="main_52" type="CAV" route="main" depart="51" departSpeed="9.67"/>
    <vehicle id="main_53" type="CAV" route="main" depart="53" departSpeed="8.43"/>
    <vehicle id="ramp_54" type="CAV" route="ramp" depart="53" color="1,0,0" />
    <vehicle id="main_55" type="CAV" route="main" depart="54" departSpeed="8.53"/>
    <vehicle id="main_56" type="CAV" route="main" depart="55" departSpeed="9.91"/>
    <vehicle id="main_57" type="CAV" route="main" depart="57" departSpeed="9.94"/>
    <vehicle id="main_58" type="CAV" route="main" depart="59" departSpeed="9.01"/>
    <vehicle id="main_59" type="CAV" route="main" depart="60" departSpeed="8.16"/>
    <vehicle id="ramp_60" type="CAV" route="ramp" depart="60" departSpeed="9.35"/>
    <vehicle id="main_61" type="CAV" route="main" depart="61" color="1,0,0" />
    <vehicle id="main_62" type="CAV" route="main" depart="62" departSpeed="9.24"/>
    <vehicle id="ramp_63" type="CAV" route="ramp" depart="62" departSpeed="9.05"/>
    <vehicle id="ramp_64" type="CAV" route="ramp" depart="63" departSpeed="8.48"/>
    <vehicle id="main_65" type="CAV" route="main" depart="64" departSpeed="8.60"/>
    <vehicle id="ramp_66" type="CAV" route="ramp" depart="64" departSpeed="8.15"/>
    <vehicle id="main_67" type="CAV" route="main" depart="65" departSpeed="9.99"/>
    <vehicle id="ramp_68" type="CAV" route="ramp" depart="65" departSpeed="8.53"/>
    <vehicle id="ramp_69" type="CAV" route="ramp" depart="67" color="1,0,0" />
    <vehicle id="ramp_70" type="CAV" route="ramp" depart="70" departSpeed="8.60"/>
    <vehicle id="main_71" type="CAV" route="main" depart="72" color="1,0,0" />
    <vehicle id="ramp_72" type="CAV" route="ramp" depart="72" departSpeed="8.54"/>
    <vehicle id="main_73" type="CAV" route="main" depart="74" departSpeed="8.53"/>
    <vehicle id="ramp_74" type="CAV" route="ramp" depart="74" departSpeed="9.69"/>
    <vehicle id="main_75" type="CAV" route="main" depart="75" departSpeed="8.55"/>
    <vehicle id="ramp_76" type="CAV" route="ramp" depart="75" departSpeed="9.27"/>
    <vehicle id="main_77" type="CAV" route="main" depart="76" departSpeed="9.10"/>
    <vehicle id="ramp_78" type="CAV" route="ramp" depart="76" color="1,0,0" />
    <vehicle id="main_79" type="CAV" route="main" depart="77" departSpeed="9.81"/>
    <vehicle id="main_80" type="CAV" route="main" depart="79" color="1,0,0" />
    <vehicle id="ramp_81" type="CAV" route="ramp" depart="79" departSpeed="9.59"/>
    <vehicle id="main_82" type="CAV" route="main" depart="81" departSpeed="8.21"/>
    <vehicle id="ramp_83" type="CAV" route="ramp" depart="82" departSpeed="8.31"/>
    <vehicle id="ramp_84" type="CAV" route="ramp" depart="85" departSpeed="8.66"/>
    <vehicle id="main_85" type="CAV" route="main" depart="88" departSpeed="8.22"/>
    <vehicle id="ramp_86" type="CAV" route="ramp" depart="89" departSpeed="8.92"/>
    <vehicle id="main_87" type="CAV" route="main" depart="90" departSpeed="8.46"/>
    <vehicle id="ramp_88" type="CAV" route="ramp" depart="90" color="1,0,0" />
    <vehicle id="main_89" type="CAV" route="main" depart="91" departSpeed="9.93"/>
    <vehicle id="ramp_90" type="CAV" route="ramp" depart="91" departSpeed="8.80"/>
    <vehicle id="ramp_91" type="CAV" route="ramp" depart="93" departSpeed="8.36"/>
    <vehicle id="ramp_92" type="CAV" route="ramp" depart="94" color="1,0,0" />
    <vehicle id="main_93" type="CAV" route="main" depart="95" departSpeed="8.63"/>
    <vehicle id="ramp_94" type="CAV" route="ramp" depart="96" departSpeed="8.51"/>
    <vehicle id="ramp_95" type="CAV" route="ramp" depart="97" departSpeed="9.08"/>
    <vehicle id="ramp_96" type="CAV" route="ramp" depart="99" color="1,0,0" />
</routes>
