<connections>
    <connection from="ramp" to="main" fromLane="0" toLane="0"/>
</connections>
