<nodes> <!-- The opening tag -->


  <node id="c" x="0.0" y="0.0" type="unregulated"/> <!-- def. of node "1" --> 
  <node id="e" x="200" y="0" type="unregulated"/> <!-- def. of node "2" -->
  <node id="w" x="-200" y="0.0" type="unregulated"/> <!-- def. of node "3" -->
  <node id="m" x="-100" y="0.0" type="unregulated"/> <!-- def. of node "4" -->
  <node id="r" x="-200" y="-50" type="unregulated"/> <!-- def. of node "5" -->

</nodes> <!-- The closing tag -->