<routes>
    <!-- Vehicle Type Distribution for Flow -->
    <vTypeDistribution id="mixed">
        <vType id="CAV" accel="3.0" decel="5.0" sigma="0.0" length="5" minGap="0.8" tau="0.5" maxSpeed="15.0" 
               carFollowingModel="IDM" lcStrategic="1" lcCooperative="1" lcAssertive="0.5" lcImpatience="0.0" lcKeepRight="0" color="1,0,0" probability="0.5"/>
        <vType id="HDV" accel="3.0" decel="5.0" sigma="0.5" length="5" minGap="2.5" tau="1.2" maxSpeed="15.0" 
               desiredMaxSpeed="15.0" speedFactor="normc(1,0.2,0.2,2)" carFollowingModel="Krauss" 
               lcStrategic="0.3" lcAssertive="0.5" lcCooperative="0.2" lcImpatience="0.5" probability="0.5"/>
    </vTypeDistribution>

    <!-- Route Definitions -->
    <route id="main" edges="wm mc ce" />
    <route id="ramp" edges="rm mc ce" />

    <!-- Use Flow Tags for Continuous Traffic -->
    <flow id="main_flow" route="main" begin="0" end="3600" probability="0.3" type="mixed" departSpeed="max"/>
    <flow id="ramp_flow" route="ramp" begin="0" end="3600" probability="0.2" type="mixed" departSpeed="10"/>
</routes>
