<routes>
        <vType id="CAV" accel="3.0" decel="5.0" sigma="0.0" length="5" minGap="0.8" tau="0.5" maxSpeed="100.0" carFollowingModel="IDM" lcStrategic="1" lcCooperative="1" lcAssertive="0.5" lcImpatience="0.0" lcKeepRight="0"/>
        <vType id="HDV" accel="3.0" decel="5.0" sigma="0.5" length="5" minGap="2.5" tau="1.2" maxSpeed="100.0" desiredMaxSpeed="100.0" speedFactor="normc(1,0.2,0.2,2)" carFollowingModel="Krauss" lcStrategic="0.3" lcAssertive="0.5" lcCooperative="0.2" lcImpatience="0.5"/>
        <route id="main" edges="wm mc ce" />
        <route id="ramp" edges="rm mc ce" />
        
    <vehicle id="main_0" type="HDV" route="main" depart="0" departSpeed="87.80533307120655" />
    <vehicle id="ramp_0" type="HDV" route="ramp" depart="0" departSpeed="99.87693374175339" />
    <vehicle id="ramp_1" type="HDV" route="ramp" depart="1" departSpeed="82.48333270441772" />
    <vehicle id="ramp_2" type="HDV" route="ramp" depart="3" departSpeed="96.04163204949629" />
    <vehicle id="ramp_3" type="HDV" route="ramp" depart="5" departSpeed="80.53988488654451" />
    <vehicle id="main_1" type="HDV" route="main" depart="6" departSpeed="92.57842812497722" />
    <vehicle id="ramp_4" type="CAV" route="ramp" depart="7" color="1,0,0" />
    <vehicle id="main_2" type="CAV" route="main" depart="9" color="1,0,0" />
    <vehicle id="ramp_5" type="CAV" route="ramp" depart="9" color="1,0,0" />
    <vehicle id="main_3" type="CAV" route="main" depart="11" color="1,0,0" />
    <vehicle id="ramp_6" type="CAV" route="ramp" depart="13" color="1,0,0" />
    <vehicle id="main_4" type="CAV" route="main" depart="14" color="1,0,0" />
    <vehicle id="ramp_7" type="CAV" route="ramp" depart="15" color="1,0,0" />
    <vehicle id="main_5" type="HDV" route="main" depart="17" departSpeed="97.6781188542811" />
    <vehicle id="ramp_8" type="CAV" route="ramp" depart="17" color="1,0,0" />
    <vehicle id="main_6" type="CAV" route="main" depart="19" color="1,0,0" />
    <vehicle id="main_7" type="CAV" route="main" depart="20" color="1,0,0" />
    <vehicle id="main_8" type="HDV" route="main" depart="24" departSpeed="96.9005739136998" />
    <vehicle id="ramp_9" type="CAV" route="ramp" depart="24" color="1,0,0" />
    <vehicle id="main_9" type="HDV" route="main" depart="25" departSpeed="80.51922566059069" />
    <vehicle id="main_10" type="CAV" route="main" depart="26" color="1,0,0" />
    <vehicle id="main_11" type="HDV" route="main" depart="27" departSpeed="96.72766489743657" />
    <vehicle id="ramp_10" type="HDV" route="ramp" depart="30" departSpeed="98.9078456379597" />
    <vehicle id="main_12" type="CAV" route="main" depart="34" color="1,0,0" />
    <vehicle id="main_13" type="HDV" route="main" depart="35" departSpeed="82.36202222564474" />
    <vehicle id="main_14" type="CAV" route="main" depart="37" color="1,0,0" />
    <vehicle id="main_15" type="HDV" route="main" depart="39" departSpeed="95.83138297506265" />
    <vehicle id="main_16" type="HDV" route="main" depart="40" departSpeed="96.3299390002348" />
    <vehicle id="main_17" type="CAV" route="main" depart="41" color="1,0,0" />
    <vehicle id="main_18" type="CAV" route="main" depart="42" color="1,0,0" />
    <vehicle id="main_19" type="HDV" route="main" depart="44" departSpeed="98.20716190567958" />
    <vehicle id="main_20" type="CAV" route="main" depart="45" color="1,0,0" />
    <vehicle id="main_21" type="CAV" route="main" depart="47" color="1,0,0" />
    <vehicle id="ramp_11" type="CAV" route="ramp" depart="48" color="1,0,0" />
    <vehicle id="main_22" type="HDV" route="main" depart="49" departSpeed="89.06336014266921" />
    <vehicle id="main_23" type="CAV" route="main" depart="51" color="1,0,0" />
    <vehicle id="main_24" type="CAV" route="main" depart="52" color="1,0,0" />
    <vehicle id="ramp_12" type="HDV" route="ramp" depart="52" departSpeed="91.22943445430201" />
    <vehicle id="ramp_13" type="HDV" route="ramp" depart="56" departSpeed="83.16453135150367" />
    <vehicle id="main_25" type="CAV" route="main" depart="60" color="1,0,0" />
    <vehicle id="main_26" type="HDV" route="main" depart="61" departSpeed="87.76547126866734" />
    <vehicle id="ramp_14" type="CAV" route="ramp" depart="61" color="1,0,0" />
    <vehicle id="main_27" type="CAV" route="main" depart="62" color="1,0,0" />
    <vehicle id="ramp_15" type="HDV" route="ramp" depart="64" departSpeed="92.58228057151454" />
    <vehicle id="main_28" type="HDV" route="main" depart="65" departSpeed="88.2910803136077" />
    <vehicle id="main_29" type="HDV" route="main" depart="66" departSpeed="87.90091564433301" />
    <vehicle id="main_30" type="CAV" route="main" depart="68" color="1,0,0" />
    <vehicle id="main_31" type="CAV" route="main" depart="69" color="1,0,0" />
    <vehicle id="ramp_16" type="CAV" route="ramp" depart="70" color="1,0,0" />
    <vehicle id="main_32" type="CAV" route="main" depart="71" color="1,0,0" />
    <vehicle id="ramp_17" type="CAV" route="ramp" depart="71" color="1,0,0" />
    <vehicle id="ramp_18" type="CAV" route="ramp" depart="73" color="1,0,0" />
    <vehicle id="main_33" type="CAV" route="main" depart="75" color="1,0,0" />
    <vehicle id="ramp_19" type="CAV" route="ramp" depart="78" color="1,0,0" />
    <vehicle id="main_34" type="CAV" route="main" depart="79" color="1,0,0" />
    <vehicle id="ramp_20" type="CAV" route="ramp" depart="79" color="1,0,0" />
    <vehicle id="ramp_21" type="CAV" route="ramp" depart="81" color="1,0,0" />
    <vehicle id="main_35" type="CAV" route="main" depart="82" color="1,0,0" />
    <vehicle id="ramp_22" type="HDV" route="ramp" depart="82" departSpeed="85.98340787707184" />
    <vehicle id="main_36" type="CAV" route="main" depart="83" color="1,0,0" />
    <vehicle id="main_37" type="HDV" route="main" depart="84" departSpeed="82.77475766090369" />
    <vehicle id="main_38" type="HDV" route="main" depart="85" departSpeed="90.20132651667407" />
    <vehicle id="main_39" type="HDV" route="main" depart="87" departSpeed="94.07687707712554" />
    <vehicle id="ramp_23" type="CAV" route="ramp" depart="87" color="1,0,0" />
</routes>
