<routes>
        <vType id="CAV" accel="3.0" decel="5.0" sigma="0.0" length="5" minGap="0.8" tau="0.5" maxSpeed="8.0" carFollowingModel="IDM" lcStrategic="1" lcCooperative="1" lcAssertive="0.5" lcImpatience="0.0" lcKeepRight="0"/>
        <vType id="HDV" accel="3.0" decel="5.0" sigma="0.5" length="5" minGap="2.5" tau="1.2" maxSpeed="8.0" desiredMaxSpeed="8.0" speedFactor="normc(1,0.2,0.2,2)" carFollowingModel="Krauss" lcStrategic="0.3" lcAssertive="0.5" lcCooperative="0.2" lcImpatience="0.5"/>
        <route id="main" edges="wm mc ce" />
        <route id="ramp" edges="rm mc ce" />
        
    <vehicle id="main_0" type="HDV" route="main" depart="1" departSpeed="6.964822564653836" />
    <vehicle id="ramp_0" type="CAV" route="ramp" depart="1" color="1,0,0" />
    <vehicle id="main_1" type="HDV" route="main" depart="2" departSpeed="7.351451215950905" />
    <vehicle id="ramp_1" type="HDV" route="ramp" depart="2" departSpeed="7.92928706764493" />
    <vehicle id="main_2" type="HDV" route="main" depart="3" departSpeed="7.230244783352121" />
    <vehicle id="ramp_2" type="HDV" route="ramp" depart="3" departSpeed="6.970421463805272" />
    <vehicle id="main_3" type="CAV" route="main" depart="4" color="1,0,0" />
    <vehicle id="ramp_3" type="HDV" route="ramp" depart="5" departSpeed="7.974295159432518" />
    <vehicle id="main_4" type="HDV" route="main" depart="7" departSpeed="7.458242554994467" />
    <vehicle id="main_5" type="CAV" route="main" depart="8" color="1,0,0" />
    <vehicle id="main_6" type="CAV" route="main" depart="10" color="1,0,0" />
    <vehicle id="ramp_4" type="HDV" route="ramp" depart="10" departSpeed="6.511224003511595" />
    <vehicle id="main_7" type="CAV" route="main" depart="12" color="1,0,0" />
    <vehicle id="ramp_5" type="CAV" route="ramp" depart="13" color="1,0,0" />
    <vehicle id="main_8" type="HDV" route="main" depart="14" departSpeed="7.844556823529825" />
    <vehicle id="main_9" type="HDV" route="main" depart="16" departSpeed="6.732244834817478" />
    <vehicle id="ramp_6" type="CAV" route="ramp" depart="16" color="1,0,0" />
    <vehicle id="main_10" type="CAV" route="main" depart="17" color="1,0,0" />
    <vehicle id="ramp_7" type="CAV" route="ramp" depart="17" color="1,0,0" />
    <vehicle id="main_11" type="CAV" route="main" depart="18" color="1,0,0" />
    <vehicle id="ramp_8" type="HDV" route="ramp" depart="19" departSpeed="6.608791422720982" />
    <vehicle id="ramp_9" type="HDV" route="ramp" depart="20" departSpeed="7.676851984645974" />
    <vehicle id="main_12" type="HDV" route="main" depart="21" departSpeed="7.42347853470027" />
    <vehicle id="main_13" type="HDV" route="main" depart="23" departSpeed="7.27911046333785" />
    <vehicle id="ramp_10" type="CAV" route="ramp" depart="24" color="1,0,0" />
    <vehicle id="main_14" type="HDV" route="main" depart="28" departSpeed="7.98283944471411" />
    <vehicle id="ramp_11" type="HDV" route="ramp" depart="29" departSpeed="7.4960646966877755" />
    <vehicle id="main_15" type="CAV" route="main" depart="31" color="1,0,0" />
    <vehicle id="main_16" type="HDV" route="main" depart="32" departSpeed="7.839705884562923" />
    <vehicle id="ramp_12" type="HDV" route="ramp" depart="32" departSpeed="7.967416487328247" />
    <vehicle id="ramp_13" type="HDV" route="ramp" depart="34" departSpeed="7.758165243771343" />
    <vehicle id="main_17" type="HDV" route="main" depart="35" departSpeed="6.400023693859326" />
    <vehicle id="ramp_14" type="HDV" route="ramp" depart="36" departSpeed="7.830141795499881" />
    <vehicle id="main_18" type="HDV" route="main" depart="37" departSpeed="6.714279306913339" />
    <vehicle id="ramp_15" type="HDV" route="ramp" depart="39" departSpeed="7.015916622329685" />
    <vehicle id="main_19" type="HDV" route="main" depart="41" departSpeed="7.928620580030619" />
    <vehicle id="main_20" type="HDV" route="main" depart="43" departSpeed="7.923053229753721" />
    <vehicle id="ramp_16" type="HDV" route="ramp" depart="43" departSpeed="7.2350459354911365" />
    <vehicle id="main_21" type="HDV" route="main" depart="44" departSpeed="6.493154705822722" />
    <vehicle id="ramp_17" type="HDV" route="ramp" depart="44" departSpeed="7.627409183044151" />
    <vehicle id="main_22" type="CAV" route="main" depart="45" color="1,0,0" />
    <vehicle id="main_23" type="CAV" route="main" depart="46" color="1,0,0" />
    <vehicle id="ramp_18" type="HDV" route="ramp" depart="47" departSpeed="6.448618072371245" />
    <vehicle id="ramp_19" type="HDV" route="ramp" depart="48" departSpeed="7.774847875922582" />
    <vehicle id="main_24" type="CAV" route="main" depart="50" color="1,0,0" />
    <vehicle id="ramp_20" type="HDV" route="ramp" depart="50" departSpeed="6.921909503392503" />
    <vehicle id="main_25" type="HDV" route="main" depart="51" departSpeed="6.877874470498313" />
    <vehicle id="main_26" type="CAV" route="main" depart="53" color="1,0,0" />
    <vehicle id="ramp_21" type="CAV" route="ramp" depart="53" color="1,0,0" />
    <vehicle id="main_27" type="HDV" route="main" depart="55" departSpeed="6.510467087205263" />
    <vehicle id="ramp_22" type="CAV" route="ramp" depart="55" color="1,0,0" />
    <vehicle id="ramp_23" type="CAV" route="ramp" depart="56" color="1,0,0" />
    <vehicle id="main_28" type="CAV" route="main" depart="57" color="1,0,0" />
    <vehicle id="main_29" type="HDV" route="main" depart="59" departSpeed="7.649573932534009" />
    <vehicle id="main_30" type="HDV" route="main" depart="61" departSpeed="7.815979556373563" />
    <vehicle id="ramp_24" type="HDV" route="ramp" depart="61" departSpeed="6.515574675404513" />
    <vehicle id="main_31" type="CAV" route="main" depart="62" color="1,0,0" />
    <vehicle id="main_32" type="HDV" route="main" depart="65" departSpeed="6.994924967651425" />
    <vehicle id="main_33" type="CAV" route="main" depart="66" color="1,0,0" />
    <vehicle id="main_34" type="HDV" route="main" depart="69" departSpeed="7.6224380221462855" />
    <vehicle id="ramp_25" type="CAV" route="ramp" depart="70" color="1,0,0" />
    <vehicle id="main_35" type="CAV" route="main" depart="71" color="1,0,0" />
    <vehicle id="ramp_26" type="HDV" route="ramp" depart="71" departSpeed="7.409868675277375" />
    <vehicle id="ramp_27" type="CAV" route="ramp" depart="72" color="1,0,0" />
    <vehicle id="main_36" type="CAV" route="main" depart="73" color="1,0,0" />
    <vehicle id="main_37" type="CAV" route="main" depart="76" color="1,0,0" />
    <vehicle id="ramp_28" type="HDV" route="ramp" depart="76" departSpeed="6.587078336588672" />
    <vehicle id="main_38" type="HDV" route="main" depart="77" departSpeed="7.767831745163904" />
    <vehicle id="main_39" type="HDV" route="main" depart="78" departSpeed="7.68006667432029" />
    <vehicle id="ramp_29" type="HDV" route="ramp" depart="78" departSpeed="7.327456189428074" />
    <vehicle id="main_40" type="HDV" route="main" depart="79" departSpeed="7.357782748469436" />
    <vehicle id="ramp_30" type="CAV" route="ramp" depart="79" color="1,0,0" />
    <vehicle id="main_41" type="HDV" route="main" depart="80" departSpeed="7.347406415283618" />
    <vehicle id="main_42" type="HDV" route="main" depart="81" departSpeed="7.31497151269073" />
    <vehicle id="main_43" type="HDV" route="main" depart="82" departSpeed="7.422197736856965" />
    <vehicle id="ramp_31" type="HDV" route="ramp" depart="83" departSpeed="7.637283865421475" />
    <vehicle id="main_44" type="HDV" route="main" depart="84" departSpeed="6.6955961434229145" />
    <vehicle id="ramp_32" type="HDV" route="ramp" depart="90" departSpeed="6.432504136789137" />
    <vehicle id="ramp_33" type="HDV" route="ramp" depart="91" departSpeed="6.418537567255861" />
    <vehicle id="main_45" type="HDV" route="main" depart="93" departSpeed="7.5861388359317266" />
    <vehicle id="main_46" type="HDV" route="main" depart="95" departSpeed="6.540231717701538" />
    <vehicle id="main_47" type="CAV" route="main" depart="96" color="1,0,0" />
    <vehicle id="ramp_34" type="HDV" route="ramp" depart="96" departSpeed="6.804110762266004" />
    <vehicle id="main_48" type="HDV" route="main" depart="99" departSpeed="6.512924712919395" />
    <vehicle id="ramp_35" type="HDV" route="ramp" depart="99" departSpeed="6.927184717456321" />
</routes>
