<edges>

  <edge id="wm" from="w" to="m" priority="1" numLanes="1" speed="100"/>
  <edge id="mc" from="m" to="c" priority="1" numLanes="2" speed="100"/>
  <edge id="ce" from="c" to="e" priority="1" numLanes="1" speed="100"/>
  <edge id="rm" from="r" to="m" priority="1" numLanes="1" speed="100"/>



</edges>