<routes>
    <vType id="CAV" accel="3.0" decel="5.0" sigma="0.0" length="5" minGap="0.8" tau="0.5" maxSpeed="10.0" carFollowingModel="IDM" lcStrategic="1" lcCooperative="1" lcAssertive="0.5" lcImpatience="0.0" lcKeepRight="0"/>
    <vType id="HDV" accel="3.0" decel="5.0" sigma="0.5" length="5" minGap="2.5" tau="1.2" maxSpeed="10.0" desiredMaxSpeed="10.0" speedFactor="normc(1,0.2,0.2,2)" carFollowingModel="Krauss" lcStrategic="0.3" lcAssertive="0.5" lcCooperative="0.2" lcImpatience="0.5"/>
    <route id="main" edges="wm mc ce" />
    <route id="ramp" edges="rm mc ce" />
            
    <vehicle id="main_0" type="CAV" route="main" depart="0" color="1,0,0" />
    <vehicle id="ramp_0" type="CAV" route="ramp" depart="0" color="1,0,0" />
    <vehicle id="main_3" type="CAV" route="main" depart="0.0" color="1,0,0" />
    <vehicle id="main_4" type="HDV" route="main" depart="1.0" departSpeed="8.312930396597281" />
    <vehicle id="ramp_5" type="HDV" route="ramp" depart="1.0" departSpeed="9.1907811662184" />
    <vehicle id="main_6" type="HDV" route="main" depart="2.0" departSpeed="9.020026130542732" />
    <vehicle id="ramp_7" type="HDV" route="ramp" depart="2.0" departSpeed="9.475175094177768" />
    <vehicle id="main_8" type="HDV" route="main" depart="2.5" departSpeed="8.209230187269963" />
    <vehicle id="main_9" type="HDV" route="main" depart="3.0" departSpeed="8.34814214859843" />
    <vehicle id="ramp_10" type="CAV" route="ramp" depart="4.0" color="1,0,0" />
    <vehicle id="main_11" type="CAV" route="main" depart="4.5" color="1,0,0" />
    <vehicle id="ramp_12" type="HDV" route="ramp" depart="4.5" departSpeed="8.049724415939984" />
    <vehicle id="main_13" type="CAV" route="main" depart="5.0" color="1,0,0" />
    <vehicle id="main_14" type="HDV" route="main" depart="6.0" departSpeed="8.444970692569926" />
    <vehicle id="main_15" type="HDV" route="main" depart="7.0" departSpeed="9.216121625051537" />
    <vehicle id="ramp_16" type="HDV" route="ramp" depart="7.0" departSpeed="9.8890181065717" />
    <vehicle id="main_17" type="HDV" route="main" depart="7.5" departSpeed="9.887616285599124" />
    <vehicle id="ramp_18" type="HDV" route="ramp" depart="7.5" departSpeed="8.301683965312439" />
    <vehicle id="main_19" type="HDV" route="main" depart="8.0" departSpeed="8.659702232745971" />
    <vehicle id="ramp_20" type="HDV" route="ramp" depart="8.0" departSpeed="9.062605093144676" />
    <vehicle id="main_21" type="CAV" route="main" depart="9.0" color="1,0,0" />
    <vehicle id="main_22" type="CAV" route="main" depart="10.5" color="1,0,0" />
    <vehicle id="main_23" type="HDV" route="main" depart="11.5" departSpeed="9.004508019172665" />
    <vehicle id="ramp_24" type="CAV" route="ramp" depart="12.0" color="1,0,0" />
    <vehicle id="main_25" type="HDV" route="main" depart="12.5" departSpeed="8.31735946441417" />
    <vehicle id="ramp_26" type="HDV" route="ramp" depart="13.0" departSpeed="9.592253295540518" />
    <vehicle id="main_27" type="HDV" route="main" depart="13.5" departSpeed="9.752071249983265" />
    <vehicle id="main_28" type="CAV" route="main" depart="14.5" color="1,0,0" />
    <vehicle id="ramp_29" type="HDV" route="ramp" depart="14.5" departSpeed="8.10709752298438" />
    <vehicle id="main_30" type="CAV" route="main" depart="16.0" color="1,0,0" />
    <vehicle id="ramp_31" type="HDV" route="ramp" depart="16.0" departSpeed="8.842999336480023" />
    <vehicle id="main_32" type="CAV" route="main" depart="16.5" color="1,0,0" />
    <vehicle id="main_33" type="HDV" route="main" depart="17.5" departSpeed="9.785878726118687" />
    <vehicle id="ramp_34" type="HDV" route="ramp" depart="17.5" departSpeed="8.311033605179366" />
    <vehicle id="ramp_35" type="HDV" route="ramp" depart="18.0" departSpeed="9.533183770264174" />
    <vehicle id="ramp_36" type="CAV" route="ramp" depart="19.5" color="1,0,0" />
    <vehicle id="main_37" type="HDV" route="main" depart="20.0" departSpeed="9.28031381798851" />
    <vehicle id="ramp_38" type="CAV" route="ramp" depart="20.5" color="1,0,0" />
    <vehicle id="main_39" type="HDV" route="main" depart="21.0" departSpeed="8.547594355150505" />
    <vehicle id="main_40" type="HDV" route="main" depart="22.0" departSpeed="9.794931710354222" />
</routes>
