<routes>
    <vType id="CAV" accel="3.0" decel="5.0" sigma="0.0" length="5" minGap="0.8" tau="0.5" maxSpeed="10.0" carFollowingModel="IDM" lcStrategic="1" lcCooperative="1" lcAssertive="0.5" lcImpatience="0.0" lcKeepRight="0"/>
    <vType id="HDV" accel="3.0" decel="5.0" sigma="0.5" length="5" minGap="2.5" tau="1.2" maxSpeed="10.0" desiredMaxSpeed="10.0" speedFactor="normc(1,0.2,0.2,2)" carFollowingModel="Krauss" lcStrategic="0.3" lcAssertive="0.5" lcCooperative="0.2" lcImpatience="0.5"/>
    <route id="main" edges="wm mc ce" />
    <route id="ramp" edges="rm mc ce" />
            
    <vehicle id="main_0" type="CAV" route="main" depart="0" color="1,0,0" />
    <vehicle id="ramp_0" type="CAV" route="ramp" depart="0" color="1,0,0" />
    <vehicle id="main_3" type="CAV" route="main" depart="0.0" color="1,0,0" />
    <vehicle id="main_4" type="HDV" route="main" depart="0.5" departSpeed="9.183605948959649" />
    <vehicle id="main_5" type="HDV" route="main" depart="1.0" departSpeed="8.64876007934157" />
    <vehicle id="ramp_6" type="CAV" route="ramp" depart="1.5" color="1,0,0" />
    <vehicle id="main_7" type="CAV" route="main" depart="2.0" color="1,0,0" />
    <vehicle id="ramp_8" type="CAV" route="ramp" depart="2.5" color="1,0,0" />
    <vehicle id="main_9" type="HDV" route="main" depart="3.0" departSpeed="8.55590871023487" />
    <vehicle id="main_10" type="HDV" route="main" depart="3.5" departSpeed="8.048255788639853" />
    <vehicle id="main_11" type="HDV" route="main" depart="4.0" departSpeed="8.437211495989713" />
    <vehicle id="main_12" type="HDV" route="main" depart="5.5" departSpeed="9.8556116785225" />
    <vehicle id="ramp_13" type="HDV" route="ramp" depart="5.5" departSpeed="9.284035871553371" />
    <vehicle id="main_14" type="CAV" route="main" depart="6.0" color="1,0,0" />
    <vehicle id="main_15" type="HDV" route="main" depart="7.0" departSpeed="9.09130702970193" />
    <vehicle id="main_16" type="HDV" route="main" depart="7.5" departSpeed="9.380131524739005" />
    <vehicle id="main_17" type="HDV" route="main" depart="8.0" departSpeed="8.792799700443885" />
    <vehicle id="main_18" type="HDV" route="main" depart="8.5" departSpeed="9.121638317991536" />
    <vehicle id="main_19" type="HDV" route="main" depart="9.0" departSpeed="9.55401766462378" />
    <vehicle id="ramp_20" type="CAV" route="ramp" depart="9.0" color="1,0,0" />
    <vehicle id="main_21" type="HDV" route="main" depart="9.5" departSpeed="8.782629629683997" />
    <vehicle id="main_22" type="HDV" route="main" depart="10.0" departSpeed="8.056288049466438" />
    <vehicle id="ramp_23" type="CAV" route="ramp" depart="10.0" color="1,0,0" />
    <vehicle id="main_24" type="HDV" route="main" depart="10.5" departSpeed="9.100474778448207" />
    <vehicle id="main_25" type="HDV" route="main" depart="11.5" departSpeed="8.858141834385712" />
    <vehicle id="ramp_26" type="HDV" route="ramp" depart="11.5" departSpeed="8.133258369853195" />
    <vehicle id="main_27" type="HDV" route="main" depart="12.5" departSpeed="9.613412378684297" />
    <vehicle id="main_28" type="HDV" route="main" depart="13.5" departSpeed="8.596749922603674" />
    <vehicle id="ramp_29" type="CAV" route="ramp" depart="13.5" color="1,0,0" />
    <vehicle id="main_30" type="HDV" route="main" depart="14.5" departSpeed="8.910702567018697" />
    <vehicle id="ramp_31" type="HDV" route="ramp" depart="14.5" departSpeed="8.706811436113561" />
    <vehicle id="main_32" type="CAV" route="main" depart="15.0" color="1,0,0" />
    <vehicle id="ramp_33" type="HDV" route="ramp" depart="15.0" departSpeed="9.480539253875484" />
    <vehicle id="ramp_34" type="CAV" route="ramp" depart="15.5" color="1,0,0" />
    <vehicle id="main_35" type="CAV" route="main" depart="16.0" color="1,0,0" />
    <vehicle id="ramp_36" type="HDV" route="ramp" depart="17.0" departSpeed="9.925305617085945" />
    <vehicle id="main_37" type="CAV" route="main" depart="17.5" color="1,0,0" />
    <vehicle id="ramp_38" type="CAV" route="ramp" depart="17.5" color="1,0,0" />
    <vehicle id="ramp_39" type="HDV" route="ramp" depart="18.0" departSpeed="8.780288230892094" />
    <vehicle id="main_40" type="HDV" route="main" depart="18.5" departSpeed="9.381714016405475" />
    <vehicle id="main_41" type="CAV" route="main" depart="19.0" color="1,0,0" />
    <vehicle id="main_42" type="CAV" route="main" depart="19.5" color="1,0,0" />
    <vehicle id="ramp_43" type="HDV" route="ramp" depart="19.5" departSpeed="9.898637937212214" />
    <vehicle id="main_44" type="HDV" route="main" depart="20.0" departSpeed="9.764510841394577" />
    <vehicle id="main_45" type="CAV" route="main" depart="20.5" color="1,0,0" />
    <vehicle id="ramp_46" type="CAV" route="ramp" depart="20.5" color="1,0,0" />
    <vehicle id="main_47" type="HDV" route="main" depart="22.5" departSpeed="8.266697827519241" />
    <vehicle id="ramp_48" type="CAV" route="ramp" depart="23.0" color="1,0,0" />
    <vehicle id="main_49" type="CAV" route="main" depart="23.5" color="1,0,0" />
    <vehicle id="ramp_50" type="CAV" route="ramp" depart="23.5" color="1,0,0" />
    <vehicle id="main_51" type="HDV" route="main" depart="24.5" departSpeed="8.582099953081944" />
    <vehicle id="ramp_52" type="HDV" route="ramp" depart="24.5" departSpeed="9.496819239991243" />
</routes>
