<routes>
    <vType id="CAV" accel="3.0" decel="5.0" sigma="0.0" length="5" minGap="0.8" tau="0.5" maxSpeed="10.0" carFollowingModel="IDM" lcStrategic="1" lcCooperative="1" lcAssertive="0.5" lcImpatience="0.0" lcKeepRight="0"/>
    <vType id="HDV" accel="3.0" decel="5.0" sigma="0.5" length="5" minGap="2.5" tau="1.2" maxSpeed="10.0" desiredMaxSpeed="10.0" speedFactor="normc(1,0.2,0.2,2)" carFollowingModel="Krauss" lcStrategic="0.3" lcAssertive="0.5" lcCooperative="0.2" lcImpatience="0.5"/>
    <route id="main" edges="wm mc ce" />
    <route id="ramp" edges="rm mc ce" />
            
    <vehicle id="main_0" type="CAV" route="main" depart="0" color="1,0,0" />
    <vehicle id="ramp_0" type="CAV" route="ramp" depart="0" color="1,0,0" />
    <vehicle id="main_3" type="CAV" route="main" depart="0.0" color="1,0,0" />
    <vehicle id="main_4" type="HDV" route="main" depart="1.0" departSpeed="8.27837948157439" />
    <vehicle id="ramp_5" type="HDV" route="ramp" depart="1.0" departSpeed="8.384477709456386" />
    <vehicle id="ramp_6" type="CAV" route="ramp" depart="1.5" color="1,0,0" />
    <vehicle id="ramp_7" type="HDV" route="ramp" depart="3.0" departSpeed="8.907861288969016" />
    <vehicle id="main_8" type="CAV" route="main" depart="3.5" color="1,0,0" />
    <vehicle id="ramp_9" type="HDV" route="ramp" depart="3.5" departSpeed="8.972503506085838" />
    <vehicle id="ramp_10" type="CAV" route="ramp" depart="4.0" color="1,0,0" />
    <vehicle id="ramp_11" type="HDV" route="ramp" depart="4.5" departSpeed="9.218732876841605" />
    <vehicle id="main_12" type="CAV" route="main" depart="6.0" color="1,0,0" />
    <vehicle id="main_13" type="CAV" route="main" depart="6.5" color="1,0,0" />
    <vehicle id="ramp_14" type="HDV" route="ramp" depart="6.5" departSpeed="9.057409954733792" />
    <vehicle id="main_15" type="HDV" route="main" depart="8.0" departSpeed="8.532286455677902" />
    <vehicle id="main_16" type="HDV" route="main" depart="8.5" departSpeed="8.310809772374471" />
    <vehicle id="main_17" type="HDV" route="main" depart="9.0" departSpeed="8.47622437780861" />
    <vehicle id="ramp_18" type="HDV" route="ramp" depart="10.5" departSpeed="8.108941535278234" />
    <vehicle id="ramp_19" type="HDV" route="ramp" depart="11.0" departSpeed="8.259254203345058" />
    <vehicle id="main_20" type="HDV" route="main" depart="12.0" departSpeed="9.763675518922966" />
    <vehicle id="ramp_21" type="CAV" route="ramp" depart="12.5" color="1,0,0" />
    <vehicle id="main_22" type="HDV" route="main" depart="13.0" departSpeed="8.137816132158667" />
    <vehicle id="ramp_23" type="CAV" route="ramp" depart="13.5" color="1,0,0" />
    <vehicle id="main_24" type="HDV" route="main" depart="14.0" departSpeed="9.242364043526601" />
    <vehicle id="main_25" type="HDV" route="main" depart="15.0" departSpeed="8.930282421352429" />
    <vehicle id="main_26" type="HDV" route="main" depart="15.5" departSpeed="9.478132038602382" />
    <vehicle id="ramp_27" type="HDV" route="ramp" depart="15.5" departSpeed="8.81051357822725" />
    <vehicle id="ramp_28" type="HDV" route="ramp" depart="16.0" departSpeed="8.353187114306749" />
    <vehicle id="ramp_29" type="HDV" route="ramp" depart="17.0" departSpeed="8.275097825765606" />
    <vehicle id="main_30" type="CAV" route="main" depart="17.5" color="1,0,0" />
    <vehicle id="main_31" type="CAV" route="main" depart="19.0" color="1,0,0" />
    <vehicle id="ramp_32" type="CAV" route="ramp" depart="19.5" color="1,0,0" />
    <vehicle id="ramp_33" type="HDV" route="ramp" depart="20.0" departSpeed="9.269539258195666" />
    <vehicle id="ramp_34" type="HDV" route="ramp" depart="21.0" departSpeed="8.79651851880363" />
    <vehicle id="ramp_35" type="CAV" route="ramp" depart="21.5" color="1,0,0" />
    <vehicle id="main_36" type="CAV" route="main" depart="22.5" color="1,0,0" />
    <vehicle id="ramp_37" type="HDV" route="ramp" depart="23.0" departSpeed="9.436696547212847" />
    <vehicle id="main_38" type="HDV" route="main" depart="23.5" departSpeed="9.20340593334957" />
    <vehicle id="main_39" type="CAV" route="main" depart="24.0" color="1,0,0" />
    <vehicle id="ramp_40" type="HDV" route="ramp" depart="24.0" departSpeed="8.497027259361113" />
    <vehicle id="main_41" type="HDV" route="main" depart="24.5" departSpeed="8.552604400746214" />
</routes>
